2024_89_CemigReconfigurationCases/1_AlimsCemig/PMSU15/PMSU15CargaBT_Dez.dss
new load.3011892347M1 bus1=RML1056785454.1.2.3.0,Phases=3,kv=0.22,kW=1.64502,pf=0.92,Vminpu=0.92,Vmaxpu=1.5,model=8,zipv=[0.5,0,0.5,1,0,0,0],daily=IND3_17,status=variable
new load.3011890582M1 bus1=RML1056781044.1.2.3.0,Phases=3,kv=0.22,kW=0.056,pf=0.92,Vminpu=0.92,Vmaxpu=1.5,model=8,zipv=[0.5,0,0.5,1,0,0,0],daily=IND1_15,status=variable
new load.3011443080M1 bus1=RML1056178890.1.0,Phases=1,kv=0.127,kW=1.28844,pf=0.92,Vminpu=0.92,Vmaxpu=1.5,model=8,zipv=[0.5,0,0.5,1,0,0,0],daily=RES2_3,status=variable
new load.3011471478M1 bus1=RML1056229605.1.3.0,Phases=2,kv=0.22,kW=1.13892,pf=0.92,Vminpu=0.92,Vmaxpu=1.5,model=8,zipv=[0.5,0,0.5,1,0,0,0],daily=RES4_5,status=variable
new load.3012714987M1 bus1=RML1060406677.1.2.3.0,Phases=3,kv=0.22,kW=0.75152,pf=0.92,Vminpu=0.92,Vmaxpu=1.5,model=8,zipv=[0.5,0,0.5,1,0,0,0],daily=RES2_2,status=variable
new load.3012742953M1 bus1=RML1060406677.1.2.3.0,Phases=3,kv=0.22,kW=0.60838,pf=0.92,Vminpu=0.92,Vmaxpu=1.5,model=8,zipv=[0.5,0,0.5,1,0,0,0],daily=RES2_2,status=variable
new load.3012717073M1 bus1=RML1060406677.1.2.3.0,Phases=3,kv=0.22,kW=0.5869,pf=0.92,Vminpu=0.92,Vmaxpu=1.5,model=8,zipv=[0.5,0,0.5,1,0,0,0],daily=RES2_2,status=variable
new load.3012742284M1 bus1=RML1060442652.2.0,Phases=1,kv=0.127,kW=0.96624,pf=0.92,Vminpu=0.92,Vmaxpu=1.5,model=8,zipv=[0.5,0,0.5,1,0,0,0],daily=RES2_2,status=variable
new load.3012390277M1 bus1=RML1060411608.1.2.0,Phases=2,kv=0.22,kW=0.61188,pf=0.92,Vminpu=0.92,Vmaxpu=1.5,model=8,zipv=[0.5,0,0.5,1,0,0,0],daily=RES3_19,status=variable
new load.3012390278M1 bus1=RML1060411608.1.2.0,Phases=2,kv=0.22,kW=0.53164,pf=0.92,Vminpu=0.92,Vmaxpu=1.5,model=8,zipv=[0.5,0,0.5,1,0,0,0],daily=RES2_23,status=variable
new load.3012390279M1 bus1=RML1060411608.1.2.0,Phases=2,kv=0.22,kW=0.6301,pf=0.92,Vminpu=0.92,Vmaxpu=1.5,model=8,zipv=[0.5,0,0.5,1,0,0,0],daily=RES2_23,status=variable
new load.3012390430M1 bus1=RML1060411608.1.2.0,Phases=2,kv=0.22,kW=0.6151,pf=0.92,Vminpu=0.92,Vmaxpu=1.5,model=8,zipv=[0.5,0,0.5,1,0,0,0],daily=RES3_19,status=variable
new load.3012444466M1 bus1=RML1060371145.1.2.0,Phases=2,kv=0.22,kW=0.33892,pf=0.92,Vminpu=0.92,Vmaxpu=1.5,model=8,zipv=[0.5,0,0.5,1,0,0,0],daily=RES1_21,status=variable
new load.3011550806M1 bus1=RML1060150950.2.0,Phases=1,kv=0.127,kW=1.37444,pf=0.92,Vminpu=0.92,Vmaxpu=1.5,model=8,zipv=[0.5,0,0.5,1,0,0,0],daily=RES2_4,status=variable
new load.3011731246M1 bus1=RML1056596839.1.2.0,Phases=2,kv=0.22,kW=0.65054,pf=0.92,Vminpu=0.92,Vmaxpu=1.5,model=8,zipv=[0.5,0,0.5,1,0,0,0],daily=RES2_6,status=variable
new load.3011839039M1 bus1=RML1056683303.1.0,Phases=1,kv=0.127,kW=1.82416,pf=0.92,Vminpu=0.92,Vmaxpu=1.5,model=8,zipv=[0.5,0,0.5,1,0,0,0],daily=RES3_9,status=variable
new load.3012111195M1 bus1=RML1060110795.1.2.0,Phases=2,kv=0.22,kW=1.51354,pf=0.92,Vminpu=0.92,Vmaxpu=1.5,model=8,zipv=[0.5,0,0.5,1,0,0,0],daily=RES2_14,status=variable
new load.3012191330M1 bus1=RML1060276243.1.2.3.0,Phases=3,kv=0.22,kW=0.06298,pf=0.92,Vminpu=0.92,Vmaxpu=1.5,model=8,zipv=[0.5,0,0.5,1,0,0,0],daily=RES1_16,status=variable
new load.3012115343M1 bus1=RML1060110523.1.2.3.0,Phases=3,kv=0.22,kW=0.05396,pf=0.92,Vminpu=0.92,Vmaxpu=1.5,model=8,zipv=[0.5,0,0.5,1,0,0,0],daily=RES1_14,status=variable
new load.3012031609M1 bus1=RML1060086351.1.2.0,Phases=2,kv=0.22,kW=0.55338,pf=0.92,Vminpu=0.92,Vmaxpu=1.5,model=8,zipv=[0.5,0,0.5,1,0,0,0],daily=RES3_12,status=variable
new load.3011864231M1 bus1=RML1056738309.1.0,Phases=1,kv=0.127,kW=0.74014,pf=0.92,Vminpu=0.92,Vmaxpu=1.5,model=8,zipv=[0.5,0,0.5,1,0,0,0],daily=RES2_8,status=variable
new load.3011864483M1 bus1=RML1056758903.1.2.0,Phases=2,kv=0.22,kW=0.33888,pf=0.92,Vminpu=0.92,Vmaxpu=1.5,model=8,zipv=[0.5,0,0.5,1,0,0,0],daily=RES5_9,status=variable
new load.3012569204M1 bus1=RML1060405221.1.0,Phases=1,kv=0.127,kW=0.42452,pf=0.92,Vminpu=0.92,Vmaxpu=1.5,model=8,zipv=[0.5,0,0.5,1,0,0,0],daily=RES2_28,status=variable
new load.3012714851M1 bus1=RML1060431945.1.3.0,Phases=2,kv=0.22,kW=1.15234,pf=0.92,Vminpu=0.92,Vmaxpu=1.5,model=8,zipv=[0.5,0,0.5,1,0,0,0],daily=RES2_2,status=variable
new load.3012715635M1 bus1=RML1060431955.3.0,Phases=1,kv=0.127,kW=0.79946,pf=0.92,Vminpu=0.92,Vmaxpu=1.5,model=8,zipv=[0.5,0,0.5,1,0,0,0],daily=RES3_3,status=variable
new load.3012443537M1 bus1=RML1060295477.1.0,Phases=1,kv=0.127,kW=0.4559,pf=0.92,Vminpu=0.92,Vmaxpu=1.5,model=8,zipv=[0.5,0,0.5,1,0,0,0],daily=RES2_24,status=variable
new load.3012271699M1 bus1=RML1060220808.1.2.0,Phases=2,kv=0.22,kW=0.06868,pf=0.92,Vminpu=0.92,Vmaxpu=1.5,model=8,zipv=[0.5,0,0.5,1,0,0,0],daily=COM1_21,status=variable
new load.3011944118M1 bus1=RML1056857351.3.0,Phases=1,kv=0.127,kW=1.10594,pf=0.92,Vminpu=0.92,Vmaxpu=1.5,model=8,zipv=[0.5,0,0.5,1,0,0,0],daily=RES2_10,status=variable
new load.3012110484M1 bus1=RML1060085260.2.3.0,Phases=2,kv=0.22,kW=1.18654,pf=0.92,Vminpu=0.92,Vmaxpu=1.5,model=8,zipv=[0.5,0,0.5,1,0,0,0],daily=RES2_14,status=variable
new load.3006476711M1 bus1=RML1054312025.3.0,Phases=1,kv=0.127,kW=0.79618,pf=0.92,Vminpu=0.92,Vmaxpu=1.5,model=8,zipv=[0.5,0,0.5,1,0,0,0],daily=RES2_1,status=variable
new load.3006690740M1 bus1=RML1054450702.1.0,Phases=1,kv=0.127,kW=0.7659,pf=0.92,Vminpu=0.92,Vmaxpu=1.5,model=8,zipv=[0.5,0,0.5,1,0,0,0],daily=RES1_2,status=variable
new load.3007450286M1 bus1=RML1054727321.1.0,Phases=1,kv=0.127,kW=1.27328,pf=0.92,Vminpu=0.92,Vmaxpu=1.5,model=8,zipv=[0.5,0,0.5,1,0,0,0],daily=RES3_15,status=variable
new load.3004626716M1 bus1=RML1052004755.3.0,Phases=1,kv=0.127,kW=1.60512,pf=0.92,Vminpu=0.92,Vmaxpu=1.5,model=8,zipv=[0.5,0,0.5,1,0,0,0],daily=RES2_4,status=variable
new load.3004869211M1 bus1=RML1052004720.1.2.3.0,Phases=3,kv=0.22,kW=0.02008,pf=0.92,Vminpu=0.92,Vmaxpu=1.5,model=8,zipv=[0.5,0,0.5,1,0,0,0],daily=COM1_12,status=variable
new load.3011384269M1 bus1=RML1060985824.1.2.3.0,Phases=3,kv=0.22,kW=0.43724,pf=0.92,Vminpu=0.92,Vmaxpu=1.5,model=8,zipv=[0.5,0,0.5,1,0,0,0],daily=COM1_4,status=variable
new load.3011977629M1 bus1=RML1056784425.1.2.3.0,Phases=3,kv=0.22,kW=0.6529,pf=0.92,Vminpu=0.92,Vmaxpu=1.5,model=8,zipv=[0.5,0,0.5,1,0,0,0],daily=RES2_10,status=variable
new load.3011944466M1 bus1=RML1056784425.1.2.3.0,Phases=3,kv=0.22,kW=0.63958,pf=0.92,Vminpu=0.92,Vmaxpu=1.5,model=8,zipv=[0.5,0,0.5,1,0,0,0],daily=RES2_10,status=variable
new load.3011944802M1 bus1=RML1056784425.1.2.3.0,Phases=3,kv=0.22,kW=0.91274,pf=0.92,Vminpu=0.92,Vmaxpu=1.5,model=8,zipv=[0.5,0,0.5,1,0,0,0],daily=RES2_10,status=variable
new load.3011945061M1 bus1=RML1056784425.1.2.3.0,Phases=3,kv=0.22,kW=0.2173,pf=0.92,Vminpu=0.92,Vmaxpu=1.5,model=8,zipv=[0.5,0,0.5,1,0,0,0],daily=RES1_10,status=variable
new load.3011945072M1 bus1=RML1056784425.1.2.3.0,Phases=3,kv=0.22,kW=0.33986,pf=0.92,Vminpu=0.92,Vmaxpu=1.5,model=8,zipv=[0.5,0,0.5,1,0,0,0],daily=RES1_10,status=variable
new load.3011945344M1 bus1=RML1056784425.1.2.3.0,Phases=3,kv=0.22,kW=0.27858,pf=0.92,Vminpu=0.92,Vmaxpu=1.5,model=8,zipv=[0.5,0,0.5,1,0,0,0],daily=RES1_10,status=variable
new load.3011945418M1 bus1=RML1056784425.1.2.3.0,Phases=3,kv=0.22,kW=0.69954,pf=0.92,Vminpu=0.92,Vmaxpu=1.5,model=8,zipv=[0.5,0,0.5,1,0,0,0],daily=RES2_10,status=variable
new load.3011947643M1 bus1=RML1056784425.1.2.3.0,Phases=3,kv=0.22,kW=0.63958,pf=0.92,Vminpu=0.92,Vmaxpu=1.5,model=8,zipv=[0.5,0,0.5,1,0,0,0],daily=RES2_10,status=variable
new load.3011942834M1 bus1=RML1056784425.1.2.3.0,Phases=3,kv=0.22,kW=0.39558,pf=0.92,Vminpu=0.92,Vmaxpu=1.5,model=8,zipv=[0.5,0,0.5,1,0,0,0],daily=RES1_10,status=variable
new load.3011943360M1 bus1=RML1056784425.1.2.3.0,Phases=3,kv=0.22,kW=0.23984,pf=0.92,Vminpu=0.92,Vmaxpu=1.5,model=8,zipv=[0.5,0,0.5,1,0,0,0],daily=RES2_10,status=variable
new load.3011943730M1 bus1=RML1056784425.1.2.3.0,Phases=3,kv=0.22,kW=1.15924,pf=0.92,Vminpu=0.92,Vmaxpu=1.5,model=8,zipv=[0.5,0,0.5,1,0,0,0],daily=RES2_10,status=variable
new load.3011841737M1 bus1=RML1056717358.1.0,Phases=1,kv=0.127,kW=1.11142,pf=0.92,Vminpu=0.92,Vmaxpu=1.5,model=8,zipv=[0.5,0,0.5,1,0,0,0],daily=RES2_7,status=variable
new load.3012493166M1 bus1=RML1060319835.3.0,Phases=1,kv=0.127,kW=0.48676,pf=0.92,Vminpu=0.92,Vmaxpu=1.5,model=8,zipv=[0.5,0,0.5,1,0,0,0],daily=RES2_26,status=variable
new load.3012493167M1 bus1=RML1060319835.3.0,Phases=1,kv=0.127,kW=0.15372,pf=0.92,Vminpu=0.92,Vmaxpu=1.5,model=8,zipv=[0.5,0,0.5,1,0,0,0],daily=RES2_26,status=variable
new load.3012493168M1 bus1=RML1060319835.3.0,Phases=1,kv=0.127,kW=0.35998,pf=0.92,Vminpu=0.92,Vmaxpu=1.5,model=8,zipv=[0.5,0,0.5,1,0,0,0],daily=RES1_23,status=variable
new load.3012493169M1 bus1=RML1060319835.3.0,Phases=1,kv=0.127,kW=0.38428,pf=0.92,Vminpu=0.92,Vmaxpu=1.5,model=8,zipv=[0.5,0,0.5,1,0,0,0],daily=RES2_26,status=variable
new load.3012493170M1 bus1=RML1060319835.3.0,Phases=1,kv=0.127,kW=0.39708,pf=0.92,Vminpu=0.92,Vmaxpu=1.5,model=8,zipv=[0.5,0,0.5,1,0,0,0],daily=RES2_26,status=variable
new load.3012493171M1 bus1=RML1060319835.3.0,Phases=1,kv=0.127,kW=0.44356,pf=0.92,Vminpu=0.92,Vmaxpu=1.5,model=8,zipv=[0.5,0,0.5,1,0,0,0],daily=RES1_23,status=variable
new load.3012384835M1 bus1=RML1060242151.1.0,Phases=1,kv=0.127,kW=0.17392,pf=0.92,Vminpu=0.92,Vmaxpu=1.5,model=8,zipv=[0.5,0,0.5,1,0,0,0],daily=RES1_18,status=variable
new load.3012384836M1 bus1=RML1060242151.1.0,Phases=1,kv=0.127,kW=0.40734,pf=0.92,Vminpu=0.92,Vmaxpu=1.5,model=8,zipv=[0.5,0,0.5,1,0,0,0],daily=RES2_22,status=variable
new load.3012384837M1 bus1=RML1060242151.1.0,Phases=1,kv=0.127,kW=0.24308,pf=0.92,Vminpu=0.92,Vmaxpu=1.5,model=8,zipv=[0.5,0,0.5,1,0,0,0],daily=RES2_22,status=variable
new load.3012384838M1 bus1=RML1060242151.1.0,Phases=1,kv=0.127,kW=0.3942,pf=0.92,Vminpu=0.92,Vmaxpu=1.5,model=8,zipv=[0.5,0,0.5,1,0,0,0],daily=RES2_22,status=variable
new load.3012277409M1 bus1=RML1060194252.2.3.0,Phases=2,kv=0.22,kW=0.19254,pf=0.92,Vminpu=0.92,Vmaxpu=1.5,model=8,zipv=[0.5,0,0.5,1,0,0,0],daily=RES3_15,status=variable
new load.3012713606M1 bus1=RML1060032042.1.2.3.0,Phases=3,kv=0.22,kW=1.09508,pf=0.92,Vminpu=0.92,Vmaxpu=1.5,model=8,zipv=[0.5,0,0.5,1,0,0,0],daily=RES2_2,status=variable
new load.3011863981M1 bus1=RML1056758896.1.2.3.0,Phases=3,kv=0.22,kW=0.01004,pf=0.92,Vminpu=0.92,Vmaxpu=1.5,model=8,zipv=[0.5,0,0.5,1,0,0,0],daily=COM1_12,status=variable
new load.3012775784M1 bus1=RML1060456107.1.2.0,Phases=2,kv=0.22,kW=0.47132,pf=0.92,Vminpu=0.92,Vmaxpu=1.5,model=8,zipv=[0.5,0,0.5,1,0,0,0],daily=RES1_2,status=variable
new load.3010815174M1 bus1=RML1055865549.3.0,Phases=1,kv=0.127,kW=0.7865,pf=0.92,Vminpu=0.92,Vmaxpu=1.5,model=8,zipv=[0.5,0,0.5,1,0,0,0],daily=RES2_16,status=variable
new load.3010878052M1 bus1=RML1055359204.2.0,Phases=1,kv=0.127,kW=0.42638,pf=0.92,Vminpu=0.92,Vmaxpu=1.5,model=8,zipv=[0.5,0,0.5,1,0,0,0],daily=RES1_17,status=variable
new load.3006527043M1 bus1=RML1054342853.3.0,Phases=1,kv=0.127,kW=1.89396,pf=0.92,Vminpu=0.92,Vmaxpu=1.5,model=8,zipv=[0.5,0,0.5,1,0,0,0],daily=RES3_2,status=variable
new load.3004870472M1 bus1=RML1051959983.2.3.0,Phases=2,kv=0.22,kW=1.11892,pf=0.92,Vminpu=0.92,Vmaxpu=1.5,model=8,zipv=[0.5,0,0.5,1,0,0,0],daily=RES2_7,status=variable
new load.3005343621M1 bus1=RML1051897389.1.0,Phases=1,kv=0.127,kW=0.46672,pf=0.92,Vminpu=0.92,Vmaxpu=1.5,model=8,zipv=[0.5,0,0.5,1,0,0,0],daily=RES1_22,status=variable
new load.3003615881M1 bus1=RML1051897424.3.0,Phases=1,kv=0.127,kW=0.48286,pf=0.92,Vminpu=0.92,Vmaxpu=1.5,model=8,zipv=[0.5,0,0.5,1,0,0,0],daily=RES1_3,status=variable
new load.3003855608M1 bus1=RML1051897375.2.3.0,Phases=2,kv=0.22,kW=1.03932,pf=0.92,Vminpu=0.92,Vmaxpu=1.5,model=8,zipv=[0.5,0,0.5,1,0,0,0],daily=RES2_10,status=variable
new load.3003996927M1 bus1=RML1051897326.1.2.3.0,Phases=3,kv=0.22,kW=0.89692,pf=0.92,Vminpu=0.92,Vmaxpu=1.5,model=8,zipv=[0.5,0,0.5,1,0,0,0],daily=RES2_14,status=variable
new load.3003996928M1 bus1=RML1051897438.1.2.3.0,Phases=3,kv=0.22,kW=0.55996,pf=0.92,Vminpu=0.92,Vmaxpu=1.5,model=8,zipv=[0.5,0,0.5,1,0,0,0],daily=COM1_17,status=variable
new load.3010107475M1 bus1=RML1055065673.1.0,Phases=1,kv=0.127,kW=0.21698,pf=0.92,Vminpu=0.92,Vmaxpu=1.5,model=8,zipv=[0.5,0,0.5,1,0,0,0],daily=COM1_5,status=variable
new load.3010107467M1 bus1=RML1054990297.2.3.0,Phases=2,kv=0.22,kW=2.19562,pf=0.92,Vminpu=0.92,Vmaxpu=1.5,model=8,zipv=[0.5,0,0.5,1,0,0,0],daily=RES2_3,status=variable
new load.3006617572M1 bus1=RML1054404537.1.2.0,Phases=2,kv=0.22,kW=2.2482,pf=0.92,Vminpu=0.92,Vmaxpu=1.5,model=8,zipv=[0.5,0,0.5,1,0,0,0],daily=RES2_3,status=variable
new load.3006640616M1 bus1=RML1054420903.2.0,Phases=1,kv=0.127,kW=3.6547,pf=0.92,Vminpu=0.92,Vmaxpu=1.5,model=8,zipv=[0.5,0,0.5,1,0,0,0],daily=RES5_5,status=variable
new load.3006523450M1 bus1=RML1054341012.3.0,Phases=1,kv=0.127,kW=1.68966,pf=0.92,Vminpu=0.92,Vmaxpu=1.5,model=8,zipv=[0.5,0,0.5,1,0,0,0],daily=RES4_3,status=variable
new load.3006285749M1 bus1=RML1054193053.1.2.0,Phases=2,kv=0.22,kW=1.03296,pf=0.92,Vminpu=0.92,Vmaxpu=1.5,model=8,zipv=[0.5,0,0.5,1,0,0,0],daily=RES4_18,status=variable
new load.3003832580M1 bus1=RML1051948524.1.3.0,Phases=2,kv=0.22,kW=1.03198,pf=0.92,Vminpu=0.92,Vmaxpu=1.5,model=8,zipv=[0.5,0,0.5,1,0,0,0],daily=RES2_9,status=variable
new load.3003785774M1 bus1=RML1051948517.1.2.3.0,Phases=3,kv=0.22,kW=0.79602,pf=0.92,Vminpu=0.92,Vmaxpu=1.5,model=8,zipv=[0.5,0,0.5,1,0,0,0],daily=RES2_7,status=variable
new load.3004505287M1 bus1=RML1051948468.1.0,Phases=1,kv=0.127,kW=1.0235,pf=0.92,Vminpu=0.92,Vmaxpu=1.5,model=8,zipv=[0.5,0,0.5,1,0,0,0],daily=RES2_2,status=variable
new load.3004591042M1 bus1=RML1051948503.2.0,Phases=1,kv=0.127,kW=0.53024,pf=0.92,Vminpu=0.92,Vmaxpu=1.5,model=8,zipv=[0.5,0,0.5,1,0,0,0],daily=RES1_2,status=variable
new load.3003555046M1 bus1=RML1051948545.1.3.0,Phases=2,kv=0.22,kW=0.7593,pf=0.92,Vminpu=0.92,Vmaxpu=1.5,model=8,zipv=[0.5,0,0.5,1,0,0,0],daily=RES2_4,status=variable
new load.3003651433M1 bus1=RML1051948461.3.0,Phases=1,kv=0.127,kW=2.48286,pf=0.92,Vminpu=0.92,Vmaxpu=1.5,model=8,zipv=[0.5,0,0.5,1,0,0,0],daily=RES3_6,status=variable
new load.3003728926M1 bus1=RML1051951660.1.0,Phases=1,kv=0.127,kW=0.79526,pf=0.92,Vminpu=0.92,Vmaxpu=1.5,model=8,zipv=[0.5,0,0.5,1,0,0,0],daily=RES3_7,status=variable
new load.3003370937M1 bus1=RML1051951667.1.2.3.0,Phases=3,kv=0.22,kW=0.18506,pf=0.92,Vminpu=0.92,Vmaxpu=1.5,model=8,zipv=[0.5,0,0.5,1,0,0,0],daily=COM1_3,status=variable
new load.3003472929M1 bus1=RML1051948601.3.0,Phases=1,kv=0.127,kW=1.00204,pf=0.92,Vminpu=0.92,Vmaxpu=1.5,model=8,zipv=[0.5,0,0.5,1,0,0,0],daily=RES2_2,status=variable
new load.3012682237M1 bus1=RML1060428392.1.2.3.0,Phases=3,kv=0.22,kW=0.98056,pf=0.92,Vminpu=0.92,Vmaxpu=1.5,model=8,zipv=[0.5,0,0.5,1,0,0,0],daily=RES2_2,status=variable
new load.3012518858M1 bus1=RML1060343588.1.0,Phases=1,kv=0.127,kW=0.30082,pf=0.92,Vminpu=0.92,Vmaxpu=1.5,model=8,zipv=[0.5,0,0.5,1,0,0,0],daily=RES2_27,status=variable
new load.3012520484M1 bus1=RML1060341735.1.2.0,Phases=2,kv=0.22,kW=0.26262,pf=0.92,Vminpu=0.92,Vmaxpu=1.5,model=8,zipv=[0.5,0,0.5,1,0,0,0],daily=RES2_27,status=variable
new load.3012775163M1 bus1=RML1060460682.1.3.0,Phases=2,kv=0.22,kW=1.4725,pf=0.92,Vminpu=0.92,Vmaxpu=1.5,model=8,zipv=[0.5,0,0.5,1,0,0,0],daily=RES2_3,status=variable
new load.3012713088M1 bus1=RML1060428460.1.2.0,Phases=2,kv=0.22,kW=1.34248,pf=0.92,Vminpu=0.92,Vmaxpu=1.5,model=8,zipv=[0.5,0,0.5,1,0,0,0],daily=RES3_3,status=variable
new load.3012773928M1 bus1=RML1060456001.1.0,Phases=1,kv=0.127,kW=1.63028,pf=0.92,Vminpu=0.92,Vmaxpu=1.5,model=8,zipv=[0.5,0,0.5,1,0,0,0],daily=RES2_3,status=variable
new load.3012744583M1 bus1=RML1060444321.1.2.0,Phases=2,kv=0.22,kW=0.75868,pf=0.92,Vminpu=0.92,Vmaxpu=1.5,model=8,zipv=[0.5,0,0.5,1,0,0,0],daily=RES2_2,status=variable
new load.3012713348M1 bus1=RML1061001597.1.2.3.0,Phases=3,kv=0.22,kW=0.07968,pf=0.92,Vminpu=0.92,Vmaxpu=1.5,model=8,zipv=[0.5,0,0.5,1,0,0,0],daily=COM1_4,status=variable
new load.3006301570M1 bus1=RML1054202510.1.2.3.0,Phases=3,kv=0.22,kW=1.03012,pf=0.92,Vminpu=0.92,Vmaxpu=1.5,model=8,zipv=[0.5,0,0.5,1,0,0,0],daily=COM1_21,status=variable
new load.3011581274M1 bus1=RML1056451568.1.2.3.0,Phases=3,kv=0.22,kW=0.71114,pf=0.92,Vminpu=0.92,Vmaxpu=1.5,model=8,zipv=[0.5,0,0.5,1,0,0,0],daily=IND1_10,status=variable
new load.3011419125M1 bus1=RML1056496081.1.2.0,Phases=2,kv=0.22,kW=3.27132,pf=0.92,Vminpu=0.92,Vmaxpu=1.5,model=8,zipv=[0.5,0,0.5,1,0,0,0],daily=RES6_3,status=variable
new load.3003513941M1 bus1=RML1051875360.1.0,Phases=1,kv=0.127,kW=1.64356,pf=0.92,Vminpu=0.92,Vmaxpu=1.5,model=8,zipv=[0.5,0,0.5,1,0,0,0],daily=RES2_4,status=variable
new load.3001362495M1 bus1=RML1051875395.3.0,Phases=1,kv=0.127,kW=0.99664,pf=0.92,Vminpu=0.92,Vmaxpu=1.5,model=8,zipv=[0.5,0,0.5,1,0,0,0],daily=RES2_5,status=variable
new load.3001362496M1 bus1=RML1051875388.3.0,Phases=1,kv=0.127,kW=0.5711,pf=0.92,Vminpu=0.92,Vmaxpu=1.5,model=8,zipv=[0.5,0,0.5,1,0,0,0],daily=RES2_5,status=variable
new load.3001362497M1 bus1=RML1051875381.1.2.0,Phases=2,kv=0.22,kW=1.58142,pf=0.92,Vminpu=0.92,Vmaxpu=1.5,model=8,zipv=[0.5,0,0.5,1,0,0,0],daily=RES4_6,status=variable
new load.3001362498M1 bus1=RML1051875416.1.2.0,Phases=2,kv=0.22,kW=0.5711,pf=0.92,Vminpu=0.92,Vmaxpu=1.5,model=8,zipv=[0.5,0,0.5,1,0,0,0],daily=RES2_5,status=variable
new load.3001362499M1 bus1=RML1051875416.1.2.0,Phases=2,kv=0.22,kW=1.04144,pf=0.92,Vminpu=0.92,Vmaxpu=1.5,model=8,zipv=[0.5,0,0.5,1,0,0,0],daily=RES2_5,status=variable
new load.3001362500M1 bus1=RML1051875451.2.3.0,Phases=2,kv=0.22,kW=0.77028,pf=0.92,Vminpu=0.92,Vmaxpu=1.5,model=8,zipv=[0.5,0,0.5,1,0,0,0],daily=RES1_3,status=variable
new load.3001362501M1 bus1=RML1051875430.1.0,Phases=1,kv=0.127,kW=1.01904,pf=0.92,Vminpu=0.92,Vmaxpu=1.5,model=8,zipv=[0.5,0,0.5,1,0,0,0],daily=RES2_5,status=variable
new load.3001362502M1 bus1=RML1051875444.2.3.0,Phases=2,kv=0.22,kW=1.15558,pf=0.92,Vminpu=0.92,Vmaxpu=1.5,model=8,zipv=[0.5,0,0.5,1,0,0,0],daily=RES3_4,status=variable
new load.3001362503M1 bus1=RML1051875437.2.3.0,Phases=2,kv=0.22,kW=0.87906,pf=0.92,Vminpu=0.92,Vmaxpu=1.5,model=8,zipv=[0.5,0,0.5,1,0,0,0],daily=RES2_5,status=variable
new load.3001362504M1 bus1=RML1051875458.1.3.0,Phases=2,kv=0.22,kW=0.74468,pf=0.92,Vminpu=0.92,Vmaxpu=1.5,model=8,zipv=[0.5,0,0.5,1,0,0,0],daily=RES2_5,status=variable
new load.3001362505M1 bus1=RML1051875423.2.0,Phases=1,kv=0.127,kW=0.6663,pf=0.92,Vminpu=0.92,Vmaxpu=1.5,model=8,zipv=[0.5,0,0.5,1,0,0,0],daily=RES2_5,status=variable
new load.3001362506M1 bus1=RML1051875374.1.0,Phases=1,kv=0.127,kW=0.88524,pf=0.92,Vminpu=0.92,Vmaxpu=1.5,model=8,zipv=[0.5,0,0.5,1,0,0,0],daily=RES1_3,status=variable
new load.3001362507M1 bus1=RML1051875374.1.0,Phases=1,kv=0.127,kW=0.13796,pf=0.92,Vminpu=0.92,Vmaxpu=1.5,model=8,zipv=[0.5,0,0.5,1,0,0,0],daily=RES1_3,status=variable
new load.3001362508M1 bus1=RML1051875402.1.2.3.0,Phases=3,kv=0.22,kW=0.6719,pf=0.92,Vminpu=0.92,Vmaxpu=1.5,model=8,zipv=[0.5,0,0.5,1,0,0,0],daily=RES2_5,status=variable
new load.3001362509M1 bus1=RML1051875346.1.3.0,Phases=2,kv=0.22,kW=0.03448,pf=0.92,Vminpu=0.92,Vmaxpu=1.5,model=8,zipv=[0.5,0,0.5,1,0,0,0],daily=RES1_3,status=variable
new load.3001362510M1 bus1=RML1051875339.1.2.0,Phases=2,kv=0.22,kW=1.25342,pf=0.92,Vminpu=0.92,Vmaxpu=1.5,model=8,zipv=[0.5,0,0.5,1,0,0,0],daily=RES3_4,status=variable
new load.3001362511M1 bus1=RML1051875325.1.2.3.0,Phases=3,kv=0.22,kW=0.7128,pf=0.92,Vminpu=0.92,Vmaxpu=1.5,model=8,zipv=[0.5,0,0.5,1,0,0,0],daily=RES1_3,status=variable
new load.3001362513M1 bus1=RML1051875318.1.2.3.0,Phases=3,kv=0.22,kW=0.56334,pf=0.92,Vminpu=0.92,Vmaxpu=1.5,model=8,zipv=[0.5,0,0.5,1,0,0,0],daily=RES1_3,status=variable
new load.3004593537M1 bus1=RML1051875409.1.2.3.0,Phases=3,kv=0.22,kW=1.02884,pf=0.92,Vminpu=0.92,Vmaxpu=1.5,model=8,zipv=[0.5,0,0.5,1,0,0,0],daily=COM2_2,status=variable
new load.3006036441M1 bus1=RML1051875416.1.2.0,Phases=2,kv=0.22,kW=1.89782,pf=0.92,Vminpu=0.92,Vmaxpu=1.5,model=8,zipv=[0.5,0,0.5,1,0,0,0],daily=RES2_11,status=variable
new load.3005166272M1 bus1=RML1051875402.1.2.3.0,Phases=3,kv=0.22,kW=0.55362,pf=0.92,Vminpu=0.92,Vmaxpu=1.5,model=8,zipv=[0.5,0,0.5,1,0,0,0],daily=RES2_17,status=variable
new load.3005224156M1 bus1=RML1051875353.1.2.3.0,Phases=3,kv=0.22,kW=5.22398,pf=0.92,Vminpu=0.92,Vmaxpu=1.5,model=8,zipv=[0.5,0,0.5,1,0,0,0],daily=COM3_19,status=variable
new load.3005308778M1 bus1=RML1051875332.1.2.3.0,Phases=3,kv=0.22,kW=2.78272,pf=0.92,Vminpu=0.92,Vmaxpu=1.5,model=8,zipv=[0.5,0,0.5,1,0,0,0],daily=RES6_14,status=variable
new load.3001362262M1 bus1=RML1051875311.2.0,Phases=1,kv=0.127,kW=0.2975,pf=0.92,Vminpu=0.92,Vmaxpu=1.5,model=8,zipv=[0.5,0,0.5,1,0,0,0],daily=COM1_6,status=variable
new load.3012328467M1 bus1=RML1060270124.1.2.3.0,Phases=3,kv=0.22,kW=1.78552,pf=0.92,Vminpu=0.92,Vmaxpu=1.5,model=8,zipv=[0.5,0,0.5,1,0,0,0],daily=COM1_21,status=variable
new load.3011613461M1 bus1=RML1056463104.1.2.3.0,Phases=3,kv=0.22,kW=0.13796,pf=0.92,Vminpu=0.92,Vmaxpu=1.5,model=8,zipv=[0.5,0,0.5,1,0,0,0],daily=RES1_3,status=variable
new load.3006066447M1 bus1=RML1051948342.1.2.3.0,Phases=3,kv=0.22,kW=0.54244,pf=0.92,Vminpu=0.92,Vmaxpu=1.5,model=8,zipv=[0.5,0,0.5,1,0,0,0],daily=COM1_15,status=variable
new load.3004869346M1 bus1=RML1051948335.1.2.3.0,Phases=3,kv=0.22,kW=1.0138,pf=0.92,Vminpu=0.92,Vmaxpu=1.5,model=8,zipv=[0.5,0,0.5,1,0,0,0],daily=RES2_7,status=variable
new load.3004724642M1 bus1=RML1051948433.2.0,Phases=1,kv=0.127,kW=0.85666,pf=0.92,Vminpu=0.92,Vmaxpu=1.5,model=8,zipv=[0.5,0,0.5,1,0,0,0],daily=RES2_5,status=variable
new load.3005993823M1 bus1=RML1051948419.3.0,Phases=1,kv=0.127,kW=0.6729,pf=0.92,Vminpu=0.92,Vmaxpu=1.5,model=8,zipv=[0.5,0,0.5,1,0,0,0],daily=RES2_10,status=variable
new load.3004546804M1 bus1=RML1051948447.1.0,Phases=1,kv=0.127,kW=0.5597,pf=0.92,Vminpu=0.92,Vmaxpu=1.5,model=8,zipv=[0.5,0,0.5,1,0,0,0],daily=RES1_2,status=variable
new load.3004007058M1 bus1=RML1051948426.2.0,Phases=1,kv=0.127,kW=1.14918,pf=0.92,Vminpu=0.92,Vmaxpu=1.5,model=8,zipv=[0.5,0,0.5,1,0,0,0],daily=RES2_14,status=variable
new load.3004057689M1 bus1=RML1051948391.2.0,Phases=1,kv=0.127,kW=0.68532,pf=0.92,Vminpu=0.92,Vmaxpu=1.5,model=8,zipv=[0.5,0,0.5,1,0,0,0],daily=RES2_16,status=variable
new load.3003472928M1 bus1=RML1051948384.1.3.0,Phases=2,kv=0.22,kW=1.78746,pf=0.92,Vminpu=0.92,Vmaxpu=1.5,model=8,zipv=[0.5,0,0.5,1,0,0,0],daily=RES3_3,status=variable
new load.3003960321M1 bus1=RML1051947320.3.0,Phases=1,kv=0.127,kW=1.02984,pf=0.92,Vminpu=0.92,Vmaxpu=1.5,model=8,zipv=[0.5,0,0.5,1,0,0,0],daily=RES3_13,status=variable
new load.3005422491M1 bus1=RML1051947222.1.3.0,Phases=2,kv=0.22,kW=0.24066,pf=0.92,Vminpu=0.92,Vmaxpu=1.5,model=8,zipv=[0.5,0,0.5,1,0,0,0],daily=RES2_28,status=variable
new load.3005975519M1 bus1=RML1051947145.2.0,Phases=1,kv=0.127,kW=0.68432,pf=0.92,Vminpu=0.92,Vmaxpu=1.5,model=8,zipv=[0.5,0,0.5,1,0,0,0],daily=RES3_11,status=variable
new load.3005776619M1 bus1=RML1051947152.1.0,Phases=1,kv=0.127,kW=0.91952,pf=0.92,Vminpu=0.92,Vmaxpu=1.5,model=8,zipv=[0.5,0,0.5,1,0,0,0],daily=RES2_6,status=variable
new load.3004759056M1 bus1=RML1051947236.2.0,Phases=1,kv=0.127,kW=1.75694,pf=0.92,Vminpu=0.92,Vmaxpu=1.5,model=8,zipv=[0.5,0,0.5,1,0,0,0],daily=RES3_6,status=variable
new load.3004605668M1 bus1=RML1051947159.3.0,Phases=1,kv=0.127,kW=1.22066,pf=0.92,Vminpu=0.92,Vmaxpu=1.5,model=8,zipv=[0.5,0,0.5,1,0,0,0],daily=RES2_4,status=variable
new load.3006371562M1 bus1=RML1054243187.1.2.3.0,Phases=3,kv=0.22,kW=1.88998,pf=0.92,Vminpu=0.92,Vmaxpu=1.5,model=8,zipv=[0.5,0,0.5,1,0,0,0],daily=COM3_22,status=variable
new load.3006723012M1 bus1=RML1054467404.3.0,Phases=1,kv=0.127,kW=0.5711,pf=0.92,Vminpu=0.92,Vmaxpu=1.5,model=8,zipv=[0.5,0,0.5,1,0,0,0],daily=RES2_5,status=variable
new load.3011180956M1 bus1=RML1055596861.1.3.0,Phases=2,kv=0.22,kW=0.31906,pf=0.92,Vminpu=0.92,Vmaxpu=1.5,model=8,zipv=[0.5,0,0.5,1,0,0,0],daily=RES2_28,status=variable
new load.3012215857M1 bus1=RML1060245027.1.2.3.0,Phases=3,kv=0.22,kW=1.72574,pf=0.92,Vminpu=0.92,Vmaxpu=1.5,model=8,zipv=[0.5,0,0.5,1,0,0,0],daily=IND1_21,status=variable
new load.3012569902M1 bus1=RML1056758847.1.2.0,Phases=2,kv=0.22,kW=0.32448,pf=0.92,Vminpu=0.92,Vmaxpu=1.5,model=8,zipv=[0.5,0,0.5,1,0,0,0],daily=RES2_28,status=variable
new load.3012276019M1 bus1=RML1060248914.2.3.0,Phases=2,kv=0.22,kW=0.23116,pf=0.92,Vminpu=0.92,Vmaxpu=1.5,model=8,zipv=[0.5,0,0.5,1,0,0,0],daily=RES1_17,status=variable
new load.3012276050M1 bus1=RML1060248914.2.3.0,Phases=2,kv=0.22,kW=1.14284,pf=0.92,Vminpu=0.92,Vmaxpu=1.5,model=8,zipv=[0.5,0,0.5,1,0,0,0],daily=RES3_15,status=variable
new load.3012276051M1 bus1=RML1060248914.2.3.0,Phases=2,kv=0.22,kW=0.4161,pf=0.92,Vminpu=0.92,Vmaxpu=1.5,model=8,zipv=[0.5,0,0.5,1,0,0,0],daily=RES1_17,status=variable
new load.3012276052M1 bus1=RML1060248914.2.3.0,Phases=2,kv=0.22,kW=0.14384,pf=0.92,Vminpu=0.92,Vmaxpu=1.5,model=8,zipv=[0.5,0,0.5,1,0,0,0],daily=RES1_17,status=variable
new load.3012270897M1 bus1=RML1060248914.2.3.0,Phases=2,kv=0.22,kW=0.01028,pf=0.92,Vminpu=0.92,Vmaxpu=1.5,model=8,zipv=[0.5,0,0.5,1,0,0,0],daily=RES1_17,status=variable
new load.3012496616M1 bus1=RML1060344183.1.2.0,Phases=2,kv=0.22,kW=0.33664,pf=0.92,Vminpu=0.92,Vmaxpu=1.5,model=8,zipv=[0.5,0,0.5,1,0,0,0],daily=RES2_27,status=variable
new load.3012606851M1 bus1=RML1056860466.1.2.3.0,Phases=3,kv=0.22,kW=0.68508,pf=0.92,Vminpu=0.92,Vmaxpu=1.5,model=8,zipv=[0.5,0,0.5,1,0,0,0],daily=RES2_1,status=variable
new load.3012656638M1 bus1=RML1056860466.1.2.3.0,Phases=3,kv=0.22,kW=0.19132,pf=0.92,Vminpu=0.92,Vmaxpu=1.5,model=8,zipv=[0.5,0,0.5,1,0,0,0],daily=RES2_1,status=variable
new load.3012112535M1 bus1=RML1060045142.1.2.3.0,Phases=3,kv=0.22,kW=1.0464,pf=0.92,Vminpu=0.92,Vmaxpu=1.5,model=8,zipv=[0.5,0,0.5,1,0,0,0],daily=RES2_14,status=variable
new load.3012112536M1 bus1=RML1060045142.1.2.3.0,Phases=3,kv=0.22,kW=0.62598,pf=0.92,Vminpu=0.92,Vmaxpu=1.5,model=8,zipv=[0.5,0,0.5,1,0,0,0],daily=RES2_14,status=variable
new load.3012112537M1 bus1=RML1060045142.1.2.3.0,Phases=3,kv=0.22,kW=1.48552,pf=0.92,Vminpu=0.92,Vmaxpu=1.5,model=8,zipv=[0.5,0,0.5,1,0,0,0],daily=RES2_14,status=variable
new load.3012112538M1 bus1=RML1060045142.1.2.3.0,Phases=3,kv=0.22,kW=0.88758,pf=0.92,Vminpu=0.92,Vmaxpu=1.5,model=8,zipv=[0.5,0,0.5,1,0,0,0],daily=RES2_14,status=variable
new load.3011730958M1 bus1=RML1056596832.1.2.3.0,Phases=3,kv=0.22,kW=0.11866,pf=0.92,Vminpu=0.92,Vmaxpu=1.5,model=8,zipv=[0.5,0,0.5,1,0,0,0],daily=RES1_6,status=variable
new load.3012042302M1 bus1=RML1060054421.2.3.0,Phases=2,kv=0.22,kW=0.0313,pf=0.92,Vminpu=0.92,Vmaxpu=1.5,model=8,zipv=[0.5,0,0.5,1,0,0,0],daily=COM1_15,status=variable
new load.3012009400M1 bus1=RML1060069925.1.2.3.0,Phases=3,kv=0.22,kW=5.673,pf=0.92,Vminpu=0.92,Vmaxpu=1.5,model=8,zipv=[0.5,0,0.5,1,0,0,0],daily=COM3_12,status=variable
new load.3012121017M1 bus1=RML1060109390.1.2.0,Phases=2,kv=0.22,kW=1.0348,pf=0.92,Vminpu=0.92,Vmaxpu=1.5,model=8,zipv=[0.5,0,0.5,1,0,0,0],daily=RES3_13,status=variable
new load.3012121018M1 bus1=RML1060109390.1.2.0,Phases=2,kv=0.22,kW=1.36406,pf=0.92,Vminpu=0.92,Vmaxpu=1.5,model=8,zipv=[0.5,0,0.5,1,0,0,0],daily=RES2_14,status=variable
new load.3012121019M1 bus1=RML1060109390.1.2.0,Phases=2,kv=0.22,kW=1.1772,pf=0.92,Vminpu=0.92,Vmaxpu=1.5,model=8,zipv=[0.5,0,0.5,1,0,0,0],daily=RES2_14,status=variable
new load.3012121230M1 bus1=RML1060109390.1.2.0,Phases=2,kv=0.22,kW=0.51806,pf=0.92,Vminpu=0.92,Vmaxpu=1.5,model=8,zipv=[0.5,0,0.5,1,0,0,0],daily=RES1_14,status=variable
new load.3012121231M1 bus1=RML1060109390.1.2.0,Phases=2,kv=0.22,kW=1.17908,pf=0.92,Vminpu=0.92,Vmaxpu=1.5,model=8,zipv=[0.5,0,0.5,1,0,0,0],daily=RES3_13,status=variable
new load.3012121232M1 bus1=RML1060109390.1.2.0,Phases=2,kv=0.22,kW=0.73808,pf=0.92,Vminpu=0.92,Vmaxpu=1.5,model=8,zipv=[0.5,0,0.5,1,0,0,0],daily=RES2_14,status=variable
new load.3012121233M1 bus1=RML1060109390.1.2.0,Phases=2,kv=0.22,kW=0.20506,pf=0.92,Vminpu=0.92,Vmaxpu=1.5,model=8,zipv=[0.5,0,0.5,1,0,0,0],daily=RES1_14,status=variable
new load.3012263498M1 bus1=RML1060194696.1.2.3.0,Phases=3,kv=0.22,kW=0.70186,pf=0.92,Vminpu=0.92,Vmaxpu=1.5,model=8,zipv=[0.5,0,0.5,1,0,0,0],daily=RES3_15,status=variable
new load.3012263499M1 bus1=RML1060194696.1.2.3.0,Phases=3,kv=0.22,kW=1.32296,pf=0.92,Vminpu=0.92,Vmaxpu=1.5,model=8,zipv=[0.5,0,0.5,1,0,0,0],daily=RES3_15,status=variable
new load.3012263660M1 bus1=RML1060194696.1.2.3.0,Phases=3,kv=0.22,kW=0.47492,pf=0.92,Vminpu=0.92,Vmaxpu=1.5,model=8,zipv=[0.5,0,0.5,1,0,0,0],daily=RES2_18,status=variable
new load.3012263661M1 bus1=RML1060194696.1.2.3.0,Phases=3,kv=0.22,kW=0.61128,pf=0.92,Vminpu=0.92,Vmaxpu=1.5,model=8,zipv=[0.5,0,0.5,1,0,0,0],daily=RES2_18,status=variable
new load.3012263662M1 bus1=RML1060194696.1.2.3.0,Phases=3,kv=0.22,kW=0.4373,pf=0.92,Vminpu=0.92,Vmaxpu=1.5,model=8,zipv=[0.5,0,0.5,1,0,0,0],daily=RES2_18,status=variable
new load.3012263663M1 bus1=RML1060194696.1.2.3.0,Phases=3,kv=0.22,kW=0.11286,pf=0.92,Vminpu=0.92,Vmaxpu=1.5,model=8,zipv=[0.5,0,0.5,1,0,0,0],daily=RES2_18,status=variable
new load.3012263664M1 bus1=RML1060194696.1.2.3.0,Phases=3,kv=0.22,kW=0.53604,pf=0.92,Vminpu=0.92,Vmaxpu=1.5,model=8,zipv=[0.5,0,0.5,1,0,0,0],daily=RES2_18,status=variable
new load.3012263665M1 bus1=RML1060194696.1.2.3.0,Phases=3,kv=0.22,kW=0.53134,pf=0.92,Vminpu=0.92,Vmaxpu=1.5,model=8,zipv=[0.5,0,0.5,1,0,0,0],daily=RES2_18,status=variable
new load.3012263666M1 bus1=RML1060194696.1.2.3.0,Phases=3,kv=0.22,kW=0.8385,pf=0.92,Vminpu=0.92,Vmaxpu=1.5,model=8,zipv=[0.5,0,0.5,1,0,0,0],daily=RES3_15,status=variable
new load.3012263667M1 bus1=RML1060194696.1.2.3.0,Phases=3,kv=0.22,kW=0.375,pf=0.92,Vminpu=0.92,Vmaxpu=1.5,model=8,zipv=[0.5,0,0.5,1,0,0,0],daily=RES1_17,status=variable
new load.3011772704M1 bus1=RML1056687104.1.0,Phases=1,kv=0.127,kW=0.58798,pf=0.92,Vminpu=0.92,Vmaxpu=1.5,model=8,zipv=[0.5,0,0.5,1,0,0,0],daily=RES2_6,status=variable
new load.3012380335M1 bus1=RML1060257977.3.0,Phases=1,kv=0.127,kW=0.42704,pf=0.92,Vminpu=0.92,Vmaxpu=1.5,model=8,zipv=[0.5,0,0.5,1,0,0,0],daily=RES2_22,status=variable
new load.3012585856M1 bus1=RML1060406677.1.2.3.0,Phases=3,kv=0.22,kW=0.19974,pf=0.92,Vminpu=0.92,Vmaxpu=1.5,model=8,zipv=[0.5,0,0.5,1,0,0,0],daily=RES1_1,status=variable
new load.3012610191M1 bus1=RML1060373494.1.2.0,Phases=2,kv=0.22,kW=0.02942,pf=0.92,Vminpu=0.92,Vmaxpu=1.5,model=8,zipv=[0.5,0,0.5,1,0,0,0],daily=IND1_1,status=variable
new load.3012838530M1 bus1=RML1060406677.1.2.3.0,Phases=3,kv=0.22,kW=0.87464,pf=0.92,Vminpu=0.92,Vmaxpu=1.5,model=8,zipv=[0.5,0,0.5,1,0,0,0],daily=RES2_4,status=variable
new load.3012872241M1 bus1=RML1060406677.1.2.3.0,Phases=3,kv=0.22,kW=1.19182,pf=0.92,Vminpu=0.92,Vmaxpu=1.5,model=8,zipv=[0.5,0,0.5,1,0,0,0],daily=RES2_4,status=variable
new load.3013506201M1 bus1=RML1060668891.2.0,Phases=1,kv=0.127,kW=1.07618,pf=0.92,Vminpu=0.92,Vmaxpu=1.5,model=8,zipv=[0.5,0,0.5,1,0,0,0],daily=RES1_13,status=variable
new load.3013506202M1 bus1=RML1060668891.2.0,Phases=1,kv=0.127,kW=1.0214,pf=0.92,Vminpu=0.92,Vmaxpu=1.5,model=8,zipv=[0.5,0,0.5,1,0,0,0],daily=RES3_14,status=variable
new load.3013600321M1 bus1=RML1060632285.1.2.0,Phases=2,kv=0.22,kW=0.71002,pf=0.92,Vminpu=0.92,Vmaxpu=1.5,model=8,zipv=[0.5,0,0.5,1,0,0,0],daily=RES2_18,status=variable
new load.3013600322M1 bus1=RML1060632285.1.2.0,Phases=2,kv=0.22,kW=0.6489,pf=0.92,Vminpu=0.92,Vmaxpu=1.5,model=8,zipv=[0.5,0,0.5,1,0,0,0],daily=RES2_18,status=variable
new load.3013600323M1 bus1=RML1060632285.1.2.0,Phases=2,kv=0.22,kW=0.51806,pf=0.92,Vminpu=0.92,Vmaxpu=1.5,model=8,zipv=[0.5,0,0.5,1,0,0,0],daily=RES1_14,status=variable
new load.3013600324M1 bus1=RML1060632285.1.2.0,Phases=2,kv=0.22,kW=0.0108,pf=0.92,Vminpu=0.92,Vmaxpu=1.5,model=8,zipv=[0.5,0,0.5,1,0,0,0],daily=RES1_14,status=variable
new load.3011655885M1 bus1=RML1056718086.1.0,Phases=1,kv=0.127,kW=0.81766,pf=0.92,Vminpu=0.92,Vmaxpu=1.5,model=8,zipv=[0.5,0,0.5,1,0,0,0],daily=RES1_4,status=variable
new load.3011716347M1 bus1=RML1056557527.1.2.0,Phases=2,kv=0.22,kW=2.76402,pf=0.92,Vminpu=0.92,Vmaxpu=1.5,model=8,zipv=[0.5,0,0.5,1,0,0,0],daily=RES4_9,status=variable
new load.3013653134M1 bus1=RML1060732797.1.2.0,Phases=2,kv=0.22,kW=1.36002,pf=0.92,Vminpu=0.92,Vmaxpu=1.5,model=8,zipv=[0.5,0,0.5,1,0,0,0],daily=RES2_20,status=variable
new load.3013653135M1 bus1=RML1060732797.1.2.0,Phases=2,kv=0.22,kW=0.98834,pf=0.92,Vminpu=0.92,Vmaxpu=1.5,model=8,zipv=[0.5,0,0.5,1,0,0,0],daily=RES2_20,status=variable
new load.3013653136M1 bus1=RML1060732797.1.2.0,Phases=2,kv=0.22,kW=1.15728,pf=0.92,Vminpu=0.92,Vmaxpu=1.5,model=8,zipv=[0.5,0,0.5,1,0,0,0],daily=RES2_20,status=variable
new load.3013579084M1 bus1=RML1060922839.1.2.3.0,Phases=3,kv=0.22,kW=0.4749,pf=0.92,Vminpu=0.92,Vmaxpu=1.5,model=8,zipv=[0.5,0,0.5,1,0,0,0],daily=RES1_14,status=variable
new load.3013507208M1 bus1=RML1060909853.1.2.0,Phases=2,kv=0.22,kW=0.63932,pf=0.92,Vminpu=0.92,Vmaxpu=1.5,model=8,zipv=[0.5,0,0.5,1,0,0,0],daily=RES2_16,status=variable
new load.3013507209M1 bus1=RML1060909853.1.2.0,Phases=2,kv=0.22,kW=0.56114,pf=0.92,Vminpu=0.92,Vmaxpu=1.5,model=8,zipv=[0.5,0,0.5,1,0,0,0],daily=RES2_16,status=variable
new load.3013507261M1 bus1=RML1060909853.1.2.0,Phases=2,kv=0.22,kW=0.1266,pf=0.92,Vminpu=0.92,Vmaxpu=1.5,model=8,zipv=[0.5,0,0.5,1,0,0,0],daily=RES1_13,status=variable
new load.3013476033M1 bus1=RML1060909853.1.2.0,Phases=2,kv=0.22,kW=0.71292,pf=0.92,Vminpu=0.92,Vmaxpu=1.5,model=8,zipv=[0.5,0,0.5,1,0,0,0],daily=RES2_16,status=variable
new load.3013195817M1 bus1=RML1060589730.1.3.0,Phases=2,kv=0.22,kW=0.70994,pf=0.92,Vminpu=0.92,Vmaxpu=1.5,model=8,zipv=[0.5,0,0.5,1,0,0,0],daily=RES2_9,status=variable
new load.3013195818M1 bus1=RML1060589730.1.3.0,Phases=2,kv=0.22,kW=0.8544,pf=0.92,Vminpu=0.92,Vmaxpu=1.5,model=8,zipv=[0.5,0,0.5,1,0,0,0],daily=RES1_6,status=variable
new load.3013195819M1 bus1=RML1060589730.1.3.0,Phases=2,kv=0.22,kW=0.35132,pf=0.92,Vminpu=0.92,Vmaxpu=1.5,model=8,zipv=[0.5,0,0.5,1,0,0,0],daily=RES2_9,status=variable
new load.3013195860M1 bus1=RML1060589730.1.3.0,Phases=2,kv=0.22,kW=0.712,pf=0.92,Vminpu=0.92,Vmaxpu=1.5,model=8,zipv=[0.5,0,0.5,1,0,0,0],daily=RES1_6,status=variable
...
